REMARK SMILES O=C([O-])COP(=O)([O-])[O-]
REMARK SMILES IDX 4 1 5 2 6 3 7 4 8 5 9 6 2 7 1 8 3 9
REMARK H PARENT
REMARK INDEX MAP 8 1 2 2 1 3 5 4 3 5 4 6 9 7 7 8 6 9
REMARK Flexibility Score: inf
ROOT
ATOM      1  C   UNL     1       3.381 -12.099   2.878  1.00  0.00     0.215 C 
ENDROOT
BRANCH   1   2
ATOM      2  O   UNL     1       4.663 -12.447   3.079  1.00  0.00    -0.362 OA
BRANCH   2   3
ATOM      3  P   UNL     1       5.188 -13.546   3.883  1.00  0.00    -0.015 P 
ATOM      4  O   UNL     1       4.683 -14.811   3.417  1.00  0.00    -0.638 OA
ATOM      5  O   UNL     1       6.626 -13.585   3.809  1.00  0.00    -0.577 OA
ATOM      6  O   UNL     1       4.804 -13.382   5.264  1.00  0.00    -0.577 OA
ENDBRANCH   2   3
ENDBRANCH   1   2
BRANCH   1   7
ATOM      7  C   UNL     1       3.198 -10.946   2.026  1.00  0.00     0.068 C 
ATOM      8  O   UNL     1       4.099 -10.164   1.756  1.00  0.00    -0.547 OA
ATOM      9  O   UNL     1       2.098 -10.712   1.537  1.00  0.00    -0.547 OA
ENDBRANCH   1   7
TORSDOF 3

