MODEL 1
REMARK VINA RESULT:    -3.972      0.000      0.000
REMARK INTER + INTRA:          -4.806
REMARK INTER:                  -4.669
REMARK INTRA:                  -0.137
REMARK UNBOUND:                -0.137
REMARK SMILES O=C([O-])COP(=O)([O-])[O-]
REMARK SMILES IDX 4 1 5 2 6 3 7 4 8 5 9 6 2 7 1 8 3 9
REMARK H PARENT
REMARK INDEX MAP 8 1 2 2 1 3 5 4 3 5 4 6 9 7 7 8 6 9
REMARK Flexibility Score: inf
ROOT
ATOM      1  C   UNL     1      11.150 -17.779  -2.290  1.00  0.00     0.215 C 
ENDROOT
BRANCH   1   2
ATOM      2  O   UNL     1      10.312 -18.047  -1.275  1.00  0.00    -0.362 OA
BRANCH   2   3
ATOM      3  P   UNL     1      10.580 -17.994   0.159  1.00  0.00    -0.015 P 
ATOM      4  O   UNL     1      11.648 -18.893   0.515  1.00  0.00    -0.638 OA
ATOM      5  O   UNL     1      10.966 -16.664   0.554  1.00  0.00    -0.577 OA
ATOM      6  O   UNL     1       9.402 -18.370   0.900  1.00  0.00    -0.577 OA
ENDBRANCH   2   3
ENDBRANCH   1   2
BRANCH   1   7
ATOM      7  C   UNL     1      10.874 -16.545  -2.989  1.00  0.00     0.068 C 
ATOM      8  O   UNL     1      11.500 -15.512  -2.795  1.00  0.00    -0.547 OA
ATOM      9  O   UNL     1       9.974 -16.498  -3.821  1.00  0.00    -0.547 OA
ENDBRANCH   1   7
TORSDOF 3

ENDMDL
MODEL 2
REMARK VINA RESULT:    -3.751      1.841      4.186
REMARK INTER + INTRA:          -4.546
REMARK INTER:                  -4.487
REMARK INTRA:                  -0.059
REMARK UNBOUND:                -0.137
REMARK SMILES O=C([O-])COP(=O)([O-])[O-]
REMARK SMILES IDX 4 1 5 2 6 3 7 4 8 5 9 6 2 7 1 8 3 9
REMARK H PARENT
REMARK INDEX MAP 8 1 2 2 1 3 5 4 3 5 4 6 9 7 7 8 6 9
REMARK Flexibility Score: inf
ROOT
ATOM      1  C   UNL     1      10.749 -17.777  -1.291  1.00  0.00     0.215 C 
ENDROOT
BRANCH   1   2
ATOM      2  O   UNL     1      10.868 -16.585  -1.899  1.00  0.00    -0.362 OA
BRANCH   2   3
ATOM      3  P   UNL     1      11.076 -16.307  -3.317  1.00  0.00    -0.015 P 
ATOM      4  O   UNL     1      11.872 -17.339  -3.931  1.00  0.00    -0.638 OA
ATOM      5  O   UNL     1       9.816 -16.244  -4.011  1.00  0.00    -0.577 OA
ATOM      6  O   UNL     1      11.757 -15.047  -3.483  1.00  0.00    -0.577 OA
ENDBRANCH   2   3
ENDBRANCH   1   2
BRANCH   1   7
ATOM      7  C   UNL     1      10.579 -17.706   0.142  1.00  0.00     0.068 C 
ATOM      8  O   UNL     1       9.875 -18.485   0.771  1.00  0.00    -0.547 OA
ATOM      9  O   UNL     1      11.152 -16.836   0.788  1.00  0.00    -0.547 OA
ENDBRANCH   1   7
TORSDOF 3

ENDMDL
MODEL 3
REMARK VINA RESULT:    -3.734      1.732      3.899
REMARK INTER + INTRA:          -4.526
REMARK INTER:                  -4.386
REMARK INTRA:                  -0.140
REMARK UNBOUND:                -0.137
REMARK SMILES O=C([O-])COP(=O)([O-])[O-]
REMARK SMILES IDX 4 1 5 2 6 3 7 4 8 5 9 6 2 7 1 8 3 9
REMARK H PARENT
REMARK INDEX MAP 8 1 2 2 1 3 5 4 3 5 4 6 9 7 7 8 6 9
REMARK Flexibility Score: inf
ROOT
ATOM      1  C   UNL     1      10.914 -18.385  -1.105  1.00  0.00     0.215 C 
ENDROOT
BRANCH   1   2
ATOM      2  O   UNL     1      10.299 -17.765  -2.126  1.00  0.00    -0.362 OA
BRANCH   2   3
ATOM      3  P   UNL     1      10.883 -16.892  -3.139  1.00  0.00    -0.015 P 
ATOM      4  O   UNL     1      11.358 -15.666  -2.550  1.00  0.00    -0.638 OA
ATOM      5  O   UNL     1      11.997 -17.538  -3.784  1.00  0.00    -0.577 OA
ATOM      6  O   UNL     1       9.899 -16.564  -4.142  1.00  0.00    -0.577 OA
ENDBRANCH   2   3
ENDBRANCH   1   2
BRANCH   1   7
ATOM      7  C   UNL     1      10.549 -17.895   0.204  1.00  0.00     0.068 C 
ATOM      8  O   UNL     1      11.038 -16.890   0.702  1.00  0.00    -0.547 OA
ATOM      9  O   UNL     1       9.715 -18.493   0.874  1.00  0.00    -0.547 OA
ENDBRANCH   1   7
TORSDOF 3

ENDMDL
MODEL 4
REMARK VINA RESULT:    -3.720      7.897      8.481
REMARK INTER + INTRA:          -4.510
REMARK INTER:                  -4.379
REMARK INTRA:                  -0.131
REMARK UNBOUND:                -0.137
REMARK SMILES O=C([O-])COP(=O)([O-])[O-]
REMARK SMILES IDX 4 1 5 2 6 3 7 4 8 5 9 6 2 7 1 8 3 9
REMARK H PARENT
REMARK INDEX MAP 8 1 2 2 1 3 5 4 3 5 4 6 9 7 7 8 6 9
REMARK Flexibility Score: inf
ROOT
ATOM      1  C   UNL     1       5.532 -11.216   2.601  1.00  0.00     0.215 C 
ENDROOT
BRANCH   1   2
ATOM      2  O   UNL     1       5.020 -12.436   2.834  1.00  0.00    -0.362 OA
BRANCH   2   3
ATOM      3  P   UNL     1       4.978 -13.177   4.091  1.00  0.00    -0.015 P 
ATOM      4  O   UNL     1       4.463 -14.507   3.887  1.00  0.00    -0.638 OA
ATOM      5  O   UNL     1       6.298 -13.292   4.655  1.00  0.00    -0.577 OA
ATOM      6  O   UNL     1       4.129 -12.500   5.040  1.00  0.00    -0.577 OA
ENDBRANCH   2   3
ENDBRANCH   1   2
BRANCH   1   7
ATOM      7  C   UNL     1       6.664 -11.200   1.703  1.00  0.00     0.068 C 
ATOM      8  O   UNL     1       6.551 -11.230   0.485  1.00  0.00    -0.547 OA
ATOM      9  O   UNL     1       7.804 -11.157   2.151  1.00  0.00    -0.547 OA
ENDBRANCH   1   7
TORSDOF 3

ENDMDL
MODEL 5
REMARK VINA RESULT:    -3.707      2.021      2.705
REMARK INTER + INTRA:          -4.495
REMARK INTER:                  -4.387
REMARK INTRA:                  -0.108
REMARK UNBOUND:                -0.137
REMARK SMILES O=C([O-])COP(=O)([O-])[O-]
REMARK SMILES IDX 4 1 5 2 6 3 7 4 8 5 9 6 2 7 1 8 3 9
REMARK H PARENT
REMARK INDEX MAP 8 1 2 2 1 3 5 4 3 5 4 6 9 7 7 8 6 9
REMARK Flexibility Score: inf
ROOT
ATOM      1  C   UNL     1      10.624 -19.486  -1.719  1.00  0.00     0.215 C 
ENDROOT
BRANCH   1   2
ATOM      2  O   UNL     1      10.808 -18.336  -1.049  1.00  0.00    -0.362 OA
BRANCH   2   3
ATOM      3  P   UNL     1      10.650 -18.084   0.380  1.00  0.00    -0.015 P 
ATOM      4  O   UNL     1       9.275 -18.241   0.781  1.00  0.00    -0.638 OA
ATOM      5  O   UNL     1      11.445 -19.008   1.148  1.00  0.00    -0.577 OA
ATOM      6  O   UNL     1      11.068 -16.742   0.700  1.00  0.00    -0.577 OA
ENDBRANCH   2   3
ENDBRANCH   1   2
BRANCH   1   7
ATOM      7  C   UNL     1       9.555 -19.451  -2.691  1.00  0.00     0.068 C 
ATOM      8  O   UNL     1       9.675 -19.874  -3.833  1.00  0.00    -0.547 OA
ATOM      9  O   UNL     1       8.464 -18.981  -2.389  1.00  0.00    -0.547 OA
ENDBRANCH   1   7
TORSDOF 3

ENDMDL
